Version 4
SHEET 1 1728 792
WIRE -560 -304 -720 -304
WIRE -496 -304 -560 -304
WIRE -464 -304 -496 -304
WIRE -352 -304 -352 -336
WIRE -352 -304 -384 -304
WIRE -288 -304 -352 -304
WIRE -256 -304 -288 -304
WIRE -144 -304 -176 -304
WIRE -64 -304 -64 -336
WIRE -64 -304 -144 -304
WIRE -720 -288 -720 -304
WIRE -560 -272 -560 -304
WIRE -496 -272 -496 -304
WIRE -352 -272 -352 -304
WIRE -288 -272 -288 -304
WIRE -144 -272 -144 -304
WIRE -64 -272 -64 -304
WIRE -720 -176 -720 -208
WIRE -560 -176 -560 -208
WIRE -496 -176 -496 -208
WIRE -352 -176 -352 -208
WIRE -288 -176 -288 -208
WIRE -144 -176 -144 -192
WIRE -64 -176 -64 -208
WIRE 16 32 16 0
WIRE 320 80 304 80
WIRE 432 80 400 80
WIRE 432 112 432 80
WIRE 80 128 80 112
WIRE 304 128 304 80
WIRE -304 144 -336 144
WIRE -112 144 -176 144
WIRE -80 144 -112 144
WIRE 16 144 16 112
WIRE 16 144 -16 144
WIRE 48 144 16 144
WIRE 240 160 112 160
WIRE 256 160 240 160
WIRE 576 160 576 128
WIRE -336 176 -336 144
WIRE -112 176 -112 144
WIRE 48 176 32 176
WIRE 512 176 512 144
WIRE 544 176 512 176
WIRE 736 192 608 192
WIRE 752 192 736 192
WIRE 848 192 816 192
WIRE 960 192 928 192
WIRE 80 208 80 192
WIRE 432 208 432 176
WIRE 528 208 432 208
WIRE 544 208 528 208
WIRE 960 208 960 192
WIRE 576 240 576 224
WIRE 1072 256 1008 256
WIRE 1184 256 1152 256
WIRE 1264 256 1184 256
WIRE 1344 256 1264 256
WIRE 32 272 32 176
WIRE 64 272 32 272
WIRE 240 272 240 160
WIRE 240 272 128 272
WIRE -112 288 -112 256
WIRE 1184 288 1184 256
WIRE 1344 288 1344 256
WIRE 304 304 304 208
WIRE 528 320 528 208
WIRE 544 320 528 320
WIRE 736 320 736 192
WIRE 736 320 608 320
WIRE 960 320 960 288
WIRE 1264 336 1264 256
WIRE 1264 336 1232 336
WIRE 1472 336 1392 336
WIRE 32 400 32 272
WIRE 304 400 304 384
WIRE 304 400 32 400
WIRE 1184 400 1184 368
WIRE 1344 400 1344 368
WIRE 32 416 32 400
WIRE 304 416 304 400
WIRE 528 416 528 320
WIRE 544 416 528 416
WIRE 736 416 736 320
WIRE 736 416 624 416
WIRE 960 416 960 384
WIRE 1184 496 1184 464
WIRE 32 528 32 496
WIRE 64 528 32 528
WIRE 304 528 304 496
WIRE 304 528 128 528
WIRE 32 560 32 528
WIRE 32 640 32 624
FLAG -336 176 0
FLAG -112 288 0
FLAG -560 -176 0
FLAG -496 -176 0
FLAG -352 -176 0
FLAG -288 -176 0
FLAG -144 -176 0
FLAG -64 -176 0
FLAG -352 -336 Vr
FLAG -64 -336 Vb
FLAG -720 -176 0
FLAG 16 0 Vb
FLAG 80 208 0
FLAG 80 112 Vr
FLAG 32 640 0
FLAG 512 144 Vb
FLAG 576 240 0
FLAG 576 128 Vr
FLAG 960 416 0
FLAG 1184 496 0
FLAG 1344 400 0
SYMBOL eguitar -208 160 R0
SYMATTR InstName U4
SYMBOL res -96 272 R180
WINDOW 0 36 76 Left 2
WINDOW 3 36 40 Left 2
SYMATTR InstName R1
SYMATTR Value 1Meg
SYMATTR SpiceLine tol=1% pwr=0.25
SYMBOL res -368 -320 R90
WINDOW 0 0 56 VBottom 2
WINDOW 3 32 56 VTop 2
SYMATTR InstName R2
SYMATTR Value 47R
SYMATTR SpiceLine tol=1% pwr=0.25
SYMBOL polcap -480 -272 M0
SYMATTR InstName C2
SYMATTR Value 100µ
SYMATTR Description Capacitor
SYMATTR Type cap
SYMATTR SpiceLine V=16 Irms=170m Rser=1 Lser=0 mfg="Nichicon" pn="UPG1C101MPH" type="Al electrolytic"
SYMBOL diode -544 -208 R180
WINDOW 0 24 64 Left 2
WINDOW 3 24 0 Left 2
SYMATTR InstName D1
SYMATTR Value 1N4002
SYMBOL cap -272 -208 R180
WINDOW 0 24 56 Left 2
WINDOW 3 24 8 Left 2
SYMATTR InstName C4
SYMATTR Value 100n
SYMATTR SpiceLine V=50 Irms=728m Rser=0.14361 Lser=0 mfg="KEMET" pn="C0603C104K5RAC" type="X7R"
SYMBOL res -160 -320 R90
WINDOW 0 0 56 VBottom 2
WINDOW 3 32 56 VTop 2
SYMATTR InstName R3
SYMATTR Value 47k
SYMATTR SpiceLine tol=1% pwr=0.25
SYMBOL res -128 -176 R180
WINDOW 0 36 76 Left 2
WINDOW 3 36 40 Left 2
SYMATTR InstName R4
SYMATTR Value 47k
SYMATTR SpiceLine tol=1% pwr=0.25
SYMBOL polcap -48 -272 M0
WINDOW 3 24 56 Left 2
SYMATTR Value 47µ
SYMATTR InstName C5
SYMATTR Description Capacitor
SYMATTR Type cap
SYMATTR SpiceLine V=25 Irms=170m Rser=1 Lser=0 mfg="Nichicon" pn="UPG1E470MPH" type="Al electrolytic"
SYMBOL polcap -336 -272 M0
SYMATTR InstName C3
SYMATTR Value 100µ
SYMATTR Description Capacitor
SYMATTR Type cap
SYMATTR SpiceLine V=16 Irms=170m Rser=1 Lser=0 mfg="Nichicon" pn="UPG1C101MPH" type="Al electrolytic"
SYMBOL res 32 16 M0
SYMATTR InstName R5
SYMATTR Value 1Meg
SYMATTR SpiceLine tol=1% pwr=0.25
SYMBOL cap -16 128 R90
WINDOW 0 0 32 VBottom 2
WINDOW 3 32 32 VTop 2
SYMATTR InstName C1
SYMATTR Value 56n
SYMBOL potentiometer_standard 320 224 R180
SYMATTR InstName U2
SYMATTR Value Rtot=250k wiper={gain}
SYMATTR SpiceLine ""
SYMBOL voltage -720 -304 R0
WINDOW 123 0 0 Left 0
WINDOW 39 0 0 Left 0
SYMATTR InstName V1
SYMATTR Value 9V
SYMBOL NJM4580 80 96 R0
SYMATTR InstName U1
SYMBOL cap 128 256 R90
WINDOW 0 0 32 VBottom 2
WINDOW 3 32 32 VTop 2
SYMATTR InstName C6
SYMATTR Value 47p
SYMBOL res 288 288 R0
SYMATTR InstName R6
SYMATTR Value 10k
SYMBOL res 288 400 R0
SYMATTR InstName R7
SYMATTR Value 3.3k
SYMBOL res 16 400 R0
SYMATTR InstName R8
SYMATTR Value 4.7k
SYMBOL cap 128 512 R90
WINDOW 0 0 32 VBottom 2
WINDOW 3 32 32 VTop 2
SYMATTR InstName C7
SYMATTR Value 10n
SYMBOL cap 48 624 R180
WINDOW 0 24 56 Left 2
WINDOW 3 24 8 Left 2
SYMATTR InstName C8
SYMATTR Value 57n
SYMBOL res 416 64 R90
WINDOW 0 0 56 VBottom 2
WINDOW 3 32 56 VTop 2
SYMATTR InstName R9
SYMATTR Value 10k
SYMBOL cap 416 112 R0
SYMATTR InstName C9
SYMATTR Value 100n
SYMBOL NJM4580 576 128 R0
SYMATTR InstName U3
SYMBOL cap 608 304 R90
WINDOW 0 0 32 VBottom 2
WINDOW 3 32 32 VTop 2
SYMATTR InstName C10
SYMATTR Value 470p
SYMBOL res 640 400 R90
WINDOW 0 0 56 VBottom 2
WINDOW 3 32 56 VTop 2
SYMATTR InstName R10
SYMATTR Value 220k
SYMBOL res 944 176 R90
WINDOW 0 0 56 VBottom 2
WINDOW 3 32 56 VTop 2
SYMATTR InstName R11
SYMATTR Value 1k
SYMBOL potentiometer_standard 944 192 R0
SYMATTR InstName U5
SYMATTR Value Rtot=25K wiper={tone}
SYMATTR SpiceLine ""
SYMBOL cap 944 320 R0
SYMATTR InstName C12
SYMATTR Value 10n
SYMBOL res 1168 240 R90
WINDOW 0 0 56 VBottom 2
WINDOW 3 32 56 VTop 2
SYMATTR InstName R12
SYMATTR Value 6.8k
SYMBOL potentiometer_standard 1168 272 R0
SYMATTR InstName U6
SYMATTR Value Rtot=50K wiper={pres}
SYMATTR SpiceLine ""
SYMBOL cap 1168 400 R0
SYMATTR InstName C13
SYMATTR Value 10n
SYMBOL potentiometer_standard 1328 272 R0
SYMATTR InstName U7
SYMATTR Value Rtot=100K wiper={volume}
SYMATTR SpiceLine ""
SYMBOL polcap 752 208 R270
WINDOW 0 32 32 VTop 2
WINDOW 3 0 32 VBottom 2
SYMATTR InstName C11
SYMATTR Value 4.7µ
SYMATTR Description Capacitor
SYMATTR Type cap
SYMATTR SpiceLine V=50 Irms=170m Rser=1 Lser=0
TEXT -728 -104 Left 2 ;.tran 0 25ms 20ms
TEXT -728 40 Left 2 !.include eguitar.lib
TEXT -728 64 Left 2 !.include NJM4580_v2.lib
TEXT -728 88 Left 2 !.include potentiometer_standard.lib
TEXT -728 -72 Left 2 !.param gain 0.5
TEXT -728 -48 Left 2 !.step param tone 0 1 0.1
TEXT -728 -24 Left 2 !.param pres 0
TEXT -728 0 Left 2 !.param volume 1
TEXT -728 -128 Left 2 !.ac oct 40 20 20K
