Version 4
SHEET 1 1820 852
WIRE -160 -224 -224 -224
WIRE -48 -224 -80 -224
WIRE 32 -224 32 -272
WIRE 32 -224 -48 -224
WIRE 64 -224 32 -224
WIRE 176 -224 144 -224
WIRE 256 -224 256 -272
WIRE 256 -224 176 -224
WIRE -224 -208 -224 -224
WIRE -48 -192 -48 -224
WIRE 32 -192 32 -224
WIRE 176 -192 176 -224
WIRE 256 -192 256 -224
WIRE -224 -80 -224 -128
WIRE -48 -80 -48 -128
WIRE 32 -80 32 -128
WIRE 176 -80 176 -112
WIRE 256 -80 256 -128
WIRE 480 224 480 192
WIRE 576 272 544 272
WIRE 576 288 576 272
WIRE 752 288 720 288
WIRE 752 304 752 288
WIRE 1456 304 1424 304
WIRE 544 320 544 272
WIRE 1456 320 1456 304
WIRE 80 336 48 336
WIRE 256 336 208 336
WIRE 288 336 256 336
WIRE 384 336 368 336
WIRE 480 336 480 304
WIRE 480 336 448 336
WIRE 512 336 480 336
WIRE 720 336 720 288
WIRE 608 352 576 352
WIRE 688 352 608 352
WIRE 1424 352 1424 304
WIRE 48 368 48 336
WIRE 256 368 256 336
WIRE 512 368 496 368
WIRE 880 368 752 368
WIRE 912 368 880 368
WIRE 1024 368 992 368
WIRE 1392 368 1024 368
WIRE 688 384 656 384
WIRE 1504 384 1456 384
WIRE 1536 384 1504 384
WIRE 1648 384 1616 384
WIRE 1744 384 1712 384
WIRE 1776 384 1744 384
WIRE 1024 400 1024 368
WIRE 1392 400 1344 400
WIRE 544 416 544 384
WIRE 1744 416 1744 384
WIRE 720 432 720 400
WIRE 1168 432 1072 432
WIRE 496 448 496 368
WIRE 608 448 608 352
WIRE 608 448 496 448
WIRE 1424 448 1424 416
WIRE 256 464 256 448
WIRE 656 496 656 384
WIRE 688 496 656 496
WIRE 880 496 880 368
WIRE 880 496 768 496
WIRE 1168 496 1168 432
WIRE 1344 512 1344 400
WIRE 1392 512 1344 512
WIRE 1504 512 1504 384
WIRE 1504 512 1456 512
WIRE 1744 512 1744 496
WIRE 1024 528 1024 480
WIRE 656 576 656 496
WIRE 688 576 656 576
WIRE 768 576 752 576
WIRE 880 576 880 496
WIRE 880 576 848 576
WIRE 1168 592 1168 560
WIRE 1344 592 1344 512
WIRE 1392 592 1344 592
WIRE 1504 592 1504 512
WIRE 1504 592 1472 592
WIRE 1504 624 1504 592
WIRE 656 656 656 576
WIRE 688 656 656 656
WIRE 880 656 880 576
WIRE 880 656 752 656
WIRE 1344 672 1344 592
WIRE 656 720 656 656
WIRE 1024 720 1024 608
WIRE 1024 720 656 720
WIRE 1184 720 1152 720
WIRE 1296 720 1264 720
WIRE 1504 720 1504 688
WIRE 1504 720 1376 720
WIRE 1536 720 1504 720
WIRE 1648 720 1616 720
WIRE 1152 752 1152 720
WIRE 1648 752 1648 720
WIRE 1152 832 1152 816
WIRE 1648 832 1648 816
FLAG 176 -80 0
FLAG 256 -80 0
FLAG 32 -80 0
FLAG -48 -80 0
FLAG 32 -272 Vr
FLAG 256 -272 Vb
FLAG 48 368 0
FLAG -224 -80 0
FLAG 576 288 0
FLAG 256 464 0
FLAG 480 192 Vb
FLAG 544 416 Vr
FLAG 752 304 0
FLAG 720 432 Vr
FLAG 1168 592 Vb
FLAG 1456 320 0
FLAG 1424 448 Vr
FLAG 1152 832 0
FLAG 1648 832 0
FLAG 1744 512 0
SYMBOL res -64 -240 R90
WINDOW 0 0 56 VBottom 2
WINDOW 3 32 56 VTop 2
SYMATTR InstName R3
SYMATTR Value 47R
SYMBOL cap -64 -192 R0
SYMATTR InstName C2
SYMATTR Value 100n
SYMBOL cap 16 -192 R0
SYMATTR InstName C3
SYMATTR Value 100µ
SYMBOL res 160 -240 R90
WINDOW 0 0 56 VBottom 2
WINDOW 3 32 56 VTop 2
SYMATTR InstName R4
SYMATTR Value 10k
SYMBOL res 192 -96 R180
WINDOW 0 36 76 Left 2
WINDOW 3 36 40 Left 2
SYMATTR InstName R5
SYMATTR Value 10k
SYMBOL cap 240 -192 R0
SYMATTR InstName C4
SYMATTR Value 47µ
SYMBOL eguitar 176 352 R0
SYMATTR InstName U3
SYMBOL voltage -224 -224 R0
WINDOW 123 0 0 Left 0
WINDOW 39 0 0 Left 0
SYMATTR InstName V1
SYMATTR Value 9V
SYMBOL res 240 352 R0
SYMATTR InstName R1
SYMATTR Value 2Meg
SYMBOL res 384 320 R90
WINDOW 0 0 56 VBottom 2
WINDOW 3 32 56 VTop 2
SYMATTR InstName R2
SYMATTR Value 10k
SYMBOL cap 448 320 R90
WINDOW 0 0 32 VBottom 2
WINDOW 3 32 32 VTop 2
SYMATTR InstName C1
SYMATTR Value 100n
SYMBOL res 464 208 R0
SYMATTR InstName R6
SYMATTR Value 2Meg
SYMBOL TL081 544 416 M180
SYMATTR InstName U1
SYMATTR Value TL081
SYMBOL TL081 720 432 M180
SYMATTR InstName U2
SYMATTR Value TL081
SYMBOL res 784 480 R90
WINDOW 0 0 56 VBottom 2
WINDOW 3 32 56 VTop 2
SYMATTR InstName R7
SYMATTR Value 330k
SYMBOL cap 752 560 R90
WINDOW 0 0 32 VBottom 2
WINDOW 3 32 32 VTop 2
SYMATTR InstName C5
SYMATTR Value 22n
SYMBOL res 864 560 R90
WINDOW 0 0 56 VBottom 2
WINDOW 3 32 56 VTop 2
SYMATTR InstName R8
SYMATTR Value 100k
SYMBOL cap 752 640 R90
WINDOW 0 0 32 VBottom 2
WINDOW 3 32 32 VTop 2
SYMATTR InstName C6
SYMATTR Value 120p
SYMBOL res 1008 352 R90
WINDOW 0 0 56 VBottom 2
WINDOW 3 32 56 VTop 2
SYMATTR InstName R9
SYMATTR Value 47k
SYMBOL potentiometer_standard 1008 496 M180
SYMATTR InstName U4
SYMATTR Value Rtot=500K wiper={gain}
SYMATTR SpiceLine ""
SYMBOL res 1008 512 R0
SYMATTR InstName R10
SYMATTR Value 18k
SYMBOL cap 1152 496 R0
SYMATTR InstName C7
SYMATTR Value 10µ
SYMBOL TL081 1424 448 M180
SYMATTR InstName U5
SYMATTR Value TL081
SYMBOL cap 1456 496 R90
WINDOW 0 0 32 VBottom 2
WINDOW 3 32 32 VTop 2
SYMATTR InstName C8
SYMATTR Value 120p
SYMBOL res 1488 576 R90
WINDOW 0 0 56 VBottom 2
WINDOW 3 32 56 VTop 2
SYMATTR InstName R11
SYMATTR Value 18k
SYMBOL cap 1488 624 R0
SYMATTR InstName C9
SYMATTR Value 1µ
SYMBOL potentiometer_standard 1280 736 R270
SYMATTR InstName U6
SYMATTR Value Rtot=100K wiper={tone}
SYMATTR SpiceLine ""
SYMBOL res 1280 704 R90
WINDOW 0 0 56 VBottom 2
WINDOW 3 32 56 VTop 2
SYMATTR InstName R12
SYMATTR Value 3.3k
SYMBOL cap 1168 816 R180
WINDOW 0 24 56 Left 2
WINDOW 3 24 8 Left 2
SYMATTR InstName C10
SYMATTR Value 22n
SYMBOL res 1632 704 R90
WINDOW 0 0 56 VBottom 2
WINDOW 3 32 56 VTop 2
SYMATTR InstName R13
SYMATTR Value 3.3k
SYMBOL cap 1632 752 R0
SYMATTR InstName C11
SYMATTR Value 10µ
SYMBOL res 1632 368 R90
WINDOW 0 0 56 VBottom 2
WINDOW 3 32 56 VTop 2
SYMATTR InstName R14
SYMATTR Value 1k
SYMBOL cap 1712 368 R90
WINDOW 0 0 32 VBottom 2
WINDOW 3 32 32 VTop 2
SYMATTR InstName C12
SYMATTR Value 1µ
SYMBOL res 1728 400 R0
SYMATTR InstName R15
SYMATTR Value 100k
TEXT -232 24 Left 2 !.ac oct 40 20 20K
TEXT -232 56 Left 2 ;.tran 0 25ms 20ms
TEXT -232 128 Left 2 !.step param tone 0.1 1 0.1
TEXT -232 152 Left 2 !.param gain 0.5
TEXT -232 224 Left 2 !.include eguitar.lib
TEXT -232 248 Left 2 !.include potentiometer_standard.lib
TEXT -232 200 Left 2 !.include tl081.lib
