Version 4
SHEET 1 2828 852
WIRE -160 -224 -224 -224
WIRE -48 -224 -80 -224
WIRE 32 -224 32 -272
WIRE 32 -224 -48 -224
WIRE 64 -224 32 -224
WIRE 176 -224 144 -224
WIRE 256 -224 256 -272
WIRE 256 -224 176 -224
WIRE -224 -208 -224 -224
WIRE -48 -192 -48 -224
WIRE 32 -192 32 -224
WIRE 176 -192 176 -224
WIRE 256 -192 256 -224
WIRE -224 -80 -224 -128
WIRE -48 -80 -48 -128
WIRE 32 -80 32 -128
WIRE 176 -80 176 -112
WIRE 256 -80 256 -128
WIRE 480 224 480 192
WIRE 1664 240 1664 208
WIRE 576 272 544 272
WIRE 576 288 576 272
WIRE 1760 288 1728 288
WIRE 1760 304 1760 288
WIRE 2464 304 2432 304
WIRE 544 320 544 272
WIRE 2464 320 2464 304
WIRE 80 336 48 336
WIRE 256 336 208 336
WIRE 272 336 256 336
WIRE 384 336 352 336
WIRE 480 336 480 304
WIRE 480 336 448 336
WIRE 512 336 480 336
WIRE 1728 336 1728 288
WIRE 608 352 576 352
WIRE 640 352 608 352
WIRE 752 352 720 352
WIRE 848 352 816 352
WIRE 1440 352 848 352
WIRE 1472 352 1440 352
WIRE 1584 352 1552 352
WIRE 1664 352 1664 320
WIRE 1664 352 1648 352
WIRE 1696 352 1664 352
WIRE 2432 352 2432 304
WIRE 48 368 48 336
WIRE 256 368 256 336
WIRE 512 368 496 368
WIRE 1888 368 1760 368
WIRE 1920 368 1888 368
WIRE 2032 368 2000 368
WIRE 2400 368 2032 368
WIRE 848 384 848 352
WIRE 1440 384 1440 352
WIRE 1696 384 1664 384
WIRE 2512 384 2464 384
WIRE 2544 384 2512 384
WIRE 2656 384 2624 384
WIRE 2752 384 2720 384
WIRE 2784 384 2752 384
WIRE 2032 400 2032 368
WIRE 2400 400 2352 400
WIRE 544 416 544 384
WIRE 2752 416 2752 384
WIRE 1728 432 1728 400
WIRE 2176 432 2080 432
WIRE 496 448 496 368
WIRE 608 448 608 352
WIRE 608 448 496 448
WIRE 2432 448 2432 416
WIRE 256 464 256 448
WIRE 2176 464 2176 432
WIRE 848 480 848 464
WIRE 1440 496 1440 464
WIRE 1664 496 1664 384
WIRE 1696 496 1664 496
WIRE 1888 496 1888 368
WIRE 1888 496 1776 496
WIRE 2352 512 2352 400
WIRE 2400 512 2352 512
WIRE 2512 512 2512 384
WIRE 2512 512 2464 512
WIRE 2752 512 2752 496
WIRE 2032 528 2032 480
WIRE 1664 576 1664 496
WIRE 1696 576 1664 576
WIRE 1776 576 1760 576
WIRE 1888 576 1888 496
WIRE 1888 576 1856 576
WIRE 2176 592 2176 528
WIRE 2352 592 2352 512
WIRE 2400 592 2352 592
WIRE 2512 592 2512 512
WIRE 2512 592 2480 592
WIRE 2512 624 2512 592
WIRE 1664 656 1664 576
WIRE 1696 656 1664 656
WIRE 1888 656 1888 576
WIRE 1888 656 1760 656
WIRE 2352 672 2352 592
WIRE 1664 720 1664 656
WIRE 2032 720 2032 608
WIRE 2032 720 1664 720
WIRE 2192 720 2160 720
WIRE 2304 720 2272 720
WIRE 2512 720 2512 688
WIRE 2512 720 2384 720
WIRE 2544 720 2512 720
WIRE 2656 720 2624 720
WIRE 2160 752 2160 720
WIRE 2656 752 2656 720
WIRE 2160 832 2160 816
WIRE 2656 832 2656 816
FLAG 176 -80 0
FLAG 256 -80 0
FLAG 32 -80 0
FLAG -48 -80 0
FLAG 32 -272 Vr
FLAG 256 -272 Vb
FLAG 48 368 0
FLAG -224 -80 0
FLAG 576 288 0
FLAG 256 464 0
FLAG 480 192 Vb
FLAG 544 416 Vr
FLAG 1760 304 0
FLAG 1728 432 Vr
FLAG 2176 592 Vb
FLAG 2464 320 0
FLAG 2432 448 Vr
FLAG 2160 832 0
FLAG 2656 832 0
FLAG 2752 512 0
FLAG 848 480 0
FLAG 1440 496 0
FLAG 1664 208 Vb
SYMBOL res -64 -240 R90
WINDOW 0 0 56 VBottom 2
WINDOW 3 32 56 VTop 2
SYMATTR InstName R3
SYMATTR Value 47R
SYMBOL cap -64 -192 R0
SYMATTR InstName C2
SYMATTR Value 100n
SYMBOL cap 16 -192 R0
SYMATTR InstName C3
SYMATTR Value 100µ
SYMBOL res 160 -240 R90
WINDOW 0 0 56 VBottom 2
WINDOW 3 32 56 VTop 2
SYMATTR InstName R4
SYMATTR Value 10k
SYMBOL res 192 -96 R180
WINDOW 0 36 76 Left 2
WINDOW 3 36 40 Left 2
SYMATTR InstName R5
SYMATTR Value 10k
SYMBOL cap 240 -192 R0
SYMATTR InstName C4
SYMATTR Value 47µ
SYMBOL eguitar 176 352 R0
SYMATTR InstName U3
SYMBOL voltage -224 -224 R0
WINDOW 123 0 0 Left 0
WINDOW 39 0 0 Left 0
SYMATTR InstName V1
SYMATTR Value 9V
SYMBOL res 240 352 R0
SYMATTR InstName R1
SYMATTR Value 2Meg
SYMBOL cap 448 320 R90
WINDOW 0 0 32 VBottom 2
WINDOW 3 32 32 VTop 2
SYMATTR InstName C1
SYMATTR Value 100n
SYMBOL res 464 208 R0
SYMATTR InstName R6
SYMATTR Value 2Meg
SYMBOL TL081 544 416 M180
SYMATTR InstName U1
SYMATTR Value TL081
SYMBOL TL081 1728 432 M180
SYMATTR InstName U2
SYMATTR Value TL081
SYMBOL res 1792 480 R90
WINDOW 0 0 56 VBottom 2
WINDOW 3 32 56 VTop 2
SYMATTR InstName R7
SYMATTR Value 330k
SYMBOL cap 1760 560 R90
WINDOW 0 0 32 VBottom 2
WINDOW 3 32 32 VTop 2
SYMATTR InstName C5
SYMATTR Value 22n
SYMBOL res 1872 560 R90
WINDOW 0 0 56 VBottom 2
WINDOW 3 32 56 VTop 2
SYMATTR InstName R8
SYMATTR Value 100k
SYMBOL cap 1760 640 R90
WINDOW 0 0 32 VBottom 2
WINDOW 3 32 32 VTop 2
SYMATTR InstName C6
SYMATTR Value 120p
SYMBOL res 2016 352 R90
WINDOW 0 0 56 VBottom 2
WINDOW 3 32 56 VTop 2
SYMATTR InstName R9
SYMATTR Value 47k
SYMBOL potentiometer_standard 2016 496 M180
SYMATTR InstName U4
SYMATTR Value Rtot=500K wiper={gain}
SYMATTR SpiceLine ""
SYMBOL res 2016 512 R0
SYMATTR InstName R10
SYMATTR Value 18k
SYMBOL TL081 2432 448 M180
SYMATTR InstName U5
SYMATTR Value TL081
SYMBOL cap 2464 496 R90
WINDOW 0 0 32 VBottom 2
WINDOW 3 32 32 VTop 2
SYMATTR InstName C8
SYMATTR Value 120p
SYMBOL res 2496 576 R90
WINDOW 0 0 56 VBottom 2
WINDOW 3 32 56 VTop 2
SYMATTR InstName R11
SYMATTR Value 18k
SYMBOL cap 2496 624 R0
SYMATTR InstName C9
SYMATTR Value 100n
SYMBOL potentiometer_standard 2288 736 R270
SYMATTR InstName U6
SYMATTR Value Rtot=100K wiper={tone}
SYMATTR SpiceLine ""
SYMBOL res 2288 704 R90
WINDOW 0 0 56 VBottom 2
WINDOW 3 32 56 VTop 2
SYMATTR InstName R12
SYMATTR Value 3.3k
SYMBOL cap 2176 816 R180
WINDOW 0 24 56 Left 2
WINDOW 3 24 8 Left 2
SYMATTR InstName C10
SYMATTR Value 22n
SYMBOL res 2640 704 R90
WINDOW 0 0 56 VBottom 2
WINDOW 3 32 56 VTop 2
SYMATTR InstName R13
SYMATTR Value 3.3k
SYMBOL cap 2640 752 R0
SYMATTR InstName C11
SYMATTR Value 10µ
SYMBOL res 2640 368 R90
WINDOW 0 0 56 VBottom 2
WINDOW 3 32 56 VTop 2
SYMATTR InstName R14
SYMATTR Value 1k
SYMBOL cap 2720 368 R90
WINDOW 0 0 32 VBottom 2
WINDOW 3 32 32 VTop 2
SYMATTR InstName C12
SYMATTR Value 1µ
SYMBOL res 2736 400 R0
SYMATTR InstName R15
SYMATTR Value 100k
SYMBOL cap 816 336 R90
WINDOW 0 0 32 VBottom 2
WINDOW 3 32 32 VTop 2
SYMATTR InstName C13
SYMATTR Value 1µ
SYMBOL res 832 368 R0
SYMATTR InstName R17
SYMATTR Value 100k
SYMBOL res 368 320 R90
WINDOW 0 0 56 VBottom 2
WINDOW 3 32 56 VTop 2
SYMATTR InstName R2
SYMATTR Value 10k
SYMBOL res 736 336 R90
WINDOW 0 0 56 VBottom 2
WINDOW 3 32 56 VTop 2
SYMATTR InstName R16
SYMATTR Value 1k
SYMBOL cap 1648 336 R90
WINDOW 0 0 32 VBottom 2
WINDOW 3 32 32 VTop 2
SYMATTR InstName C14
SYMATTR Value 10n
SYMBOL res 1568 336 R90
WINDOW 0 0 56 VBottom 2
WINDOW 3 32 56 VTop 2
SYMATTR InstName R18
SYMATTR Value 10k
SYMBOL res 1456 480 R180
WINDOW 0 36 76 Left 2
WINDOW 3 36 40 Left 2
SYMATTR InstName R19
SYMATTR Value 10Meg
SYMBOL res 1680 336 R180
WINDOW 0 36 76 Left 2
WINDOW 3 36 40 Left 2
SYMATTR InstName R20
SYMATTR Value 2.2Meg
SYMBOL cap 2160 464 R0
SYMATTR InstName C7
SYMATTR Value 10µ
TEXT -232 24 Left 2 ;.ac oct 40 20 20K
TEXT -232 56 Left 2 !.tran 0 25ms 20ms
TEXT -232 128 Left 2 !.param tone 0.5
TEXT -232 152 Left 2 !.step param gain 0.1 1 0.1
TEXT -232 224 Left 2 !.include eguitar.lib
TEXT -232 248 Left 2 !.include potentiometer_standard.lib
TEXT -232 200 Left 2 !.include tl081.lib
