Version 4
SHEET 1 1632 792
WIRE -560 -304 -720 -304
WIRE -496 -304 -560 -304
WIRE -464 -304 -496 -304
WIRE -352 -304 -352 -336
WIRE -352 -304 -384 -304
WIRE -288 -304 -352 -304
WIRE -256 -304 -288 -304
WIRE -144 -304 -176 -304
WIRE -64 -304 -64 -336
WIRE -64 -304 -144 -304
WIRE -720 -288 -720 -304
WIRE -560 -272 -560 -304
WIRE -496 -272 -496 -304
WIRE -352 -272 -352 -304
WIRE -288 -272 -288 -304
WIRE -144 -272 -144 -304
WIRE -64 -272 -64 -304
WIRE -720 -176 -720 -208
WIRE -560 -176 -560 -208
WIRE -496 -176 -496 -208
WIRE -352 -176 -352 -208
WIRE -288 -176 -288 -208
WIRE -144 -176 -144 -192
WIRE -64 -176 -64 -208
WIRE 16 32 16 0
WIRE 896 80 832 80
WIRE 1264 96 1264 64
WIRE 832 112 832 80
WIRE 256 128 256 96
WIRE -304 144 -336 144
WIRE -112 144 -176 144
WIRE -80 144 -112 144
WIRE 16 144 16 112
WIRE 16 144 -16 144
WIRE 48 144 16 144
WIRE 160 144 128 144
WIRE 240 144 160 144
WIRE 400 160 304 160
WIRE 432 160 400 160
WIRE 528 160 496 160
WIRE 640 160 608 160
WIRE 704 160 640 160
WIRE 784 160 704 160
WIRE 800 160 784 160
WIRE 896 160 896 80
WIRE 896 160 880 160
WIRE 912 160 896 160
WIRE 1024 160 992 160
WIRE 1088 160 1024 160
WIRE 1184 160 1152 160
WIRE 1216 160 1184 160
WIRE -336 176 -336 144
WIRE -112 176 -112 144
WIRE 160 176 160 144
WIRE 240 176 224 176
WIRE 1024 176 1024 160
WIRE 640 192 640 160
WIRE 704 192 704 160
WIRE 784 192 784 160
WIRE 1184 192 1184 160
WIRE 288 208 288 192
WIRE 384 208 288 208
WIRE 1264 208 1264 192
WIRE 1376 208 1264 208
WIRE 1472 208 1440 208
WIRE 256 224 256 192
WIRE 1264 224 1264 208
WIRE 1472 240 1472 208
WIRE 272 256 272 192
WIRE 304 256 272 256
WIRE 384 256 384 208
WIRE 384 256 368 256
WIRE 1024 272 1024 240
WIRE -112 288 -112 256
WIRE 160 288 160 240
WIRE 640 288 640 256
WIRE 704 288 704 256
WIRE 784 288 784 256
WIRE 1600 288 1520 288
WIRE 1184 304 1184 272
WIRE 224 336 224 176
WIRE 240 336 224 336
WIRE 400 336 400 160
WIRE 400 336 304 336
WIRE 1264 336 1264 304
WIRE 32 352 0 352
WIRE 128 352 96 352
WIRE 224 352 224 336
WIRE 224 352 208 352
WIRE 1472 352 1472 320
WIRE 0 384 0 352
WIRE 32 432 0 432
WIRE 128 432 96 432
WIRE 224 432 224 352
WIRE 224 432 208 432
WIRE 240 432 224 432
WIRE 352 432 320 432
WIRE 400 432 400 336
WIRE 400 432 352 432
WIRE 0 464 0 432
WIRE 272 512 272 480
WIRE 352 512 352 432
WIRE 352 512 272 512
FLAG -336 176 0
FLAG -112 288 0
FLAG -560 -176 0
FLAG -496 -176 0
FLAG -352 -176 0
FLAG -288 -176 0
FLAG -144 -176 0
FLAG -64 -176 0
FLAG -352 -336 Vr
FLAG -64 -336 Vb
FLAG -720 -176 0
FLAG 160 288 0
FLAG 256 96 Vr
FLAG 256 224 0
FLAG 16 0 Vb
FLAG 0 464 0
FLAG 0 384 0
FLAG 704 288 0
FLAG 784 288 0
FLAG 1024 272 0
FLAG 1472 352 0
FLAG 1184 304 0
FLAG 1264 336 0
FLAG 1264 64 Vr
FLAG 640 288 0
SYMBOL eguitar -208 160 R0
SYMATTR InstName U4
SYMBOL res -96 272 R180
WINDOW 0 36 76 Left 2
WINDOW 3 36 40 Left 2
SYMATTR InstName R1
SYMATTR Value 1Meg
SYMATTR SpiceLine tol=1% pwr=0.25
SYMBOL res -368 -320 R90
WINDOW 0 0 56 VBottom 2
WINDOW 3 32 56 VTop 2
SYMATTR InstName R2
SYMATTR Value 47R
SYMATTR SpiceLine tol=1% pwr=0.25
SYMBOL polcap -480 -272 M0
SYMATTR InstName C2
SYMATTR Value 100µ
SYMATTR Description Capacitor
SYMATTR Type cap
SYMATTR SpiceLine V=16 Irms=170m Rser=1 Lser=0 mfg="Nichicon" pn="UPG1C101MPH" type="Al electrolytic"
SYMBOL diode -544 -208 R180
WINDOW 0 24 64 Left 2
WINDOW 3 24 0 Left 2
SYMATTR InstName D1
SYMATTR Value 1N4002
SYMBOL cap -272 -208 R180
WINDOW 0 24 56 Left 2
WINDOW 3 24 8 Left 2
SYMATTR InstName C4
SYMATTR Value 100n
SYMATTR SpiceLine V=50 Irms=728m Rser=0.14361 Lser=0 mfg="KEMET" pn="C0603C104K5RAC" type="X7R"
SYMBOL res -160 -320 R90
WINDOW 0 0 56 VBottom 2
WINDOW 3 32 56 VTop 2
SYMATTR InstName R3
SYMATTR Value 100k
SYMATTR SpiceLine tol=1% pwr=0.25
SYMBOL res -128 -176 R180
WINDOW 0 36 76 Left 2
WINDOW 3 36 40 Left 2
SYMATTR InstName R4
SYMATTR Value 100k
SYMATTR SpiceLine tol=1% pwr=0.25
SYMBOL polcap -48 -272 M0
WINDOW 3 24 56 Left 2
SYMATTR Value 47µ
SYMATTR InstName C5
SYMATTR Description Capacitor
SYMATTR Type cap
SYMATTR SpiceLine V=25 Irms=170m Rser=1 Lser=0 mfg="Nichicon" pn="UPG1E470MPH" type="Al electrolytic"
SYMBOL polcap -336 -272 M0
SYMATTR InstName C3
SYMATTR Value 100µ
SYMATTR Description Capacitor
SYMATTR Type cap
SYMATTR SpiceLine V=16 Irms=170m Rser=1 Lser=0 mfg="Nichicon" pn="UPG1C101MPH" type="Al electrolytic"
SYMBOL res 32 16 M0
SYMATTR InstName R5
SYMATTR Value 1Meg
SYMATTR SpiceLine tol=1% pwr=0.25
SYMBOL res 144 160 M270
WINDOW 0 32 56 VTop 2
WINDOW 3 0 56 VBottom 2
SYMATTR InstName R6
SYMATTR Value 1k
SYMBOL LM308 272 96 R0
SYMATTR InstName U1
SYMBOL potentiometer_standard 336 416 R90
WINDOW 39 48 69 Left 0
SYMATTR SpiceLine Rtap=10 tap=0.001
SYMATTR InstName U2
SYMATTR Value Rtot=100k wiper={gain}
SYMATTR SpiceModel pot_plog
SYMBOL voltage -720 -304 R0
WINDOW 123 0 0 Left 0
WINDOW 39 0 0 Left 0
SYMATTR InstName V1
SYMATTR Value 9V
SYMBOL res 224 416 R90
WINDOW 0 0 56 VBottom 2
WINDOW 3 32 56 VTop 2
SYMATTR InstName R7
SYMATTR Value 560R
SYMBOL res 224 336 R90
WINDOW 0 0 56 VBottom 2
WINDOW 3 32 56 VTop 2
SYMATTR InstName R8
SYMATTR Value 47R
SYMBOL cap 96 336 R90
WINDOW 0 0 32 VBottom 2
WINDOW 3 32 32 VTop 2
SYMATTR InstName C9
SYMATTR Value 2.2µ
SYMBOL cap 96 416 R90
WINDOW 0 0 32 VBottom 2
WINDOW 3 32 32 VTop 2
SYMATTR InstName C10
SYMATTR Value 4.7µ
SYMBOL cap -16 128 R90
WINDOW 0 0 32 VBottom 2
WINDOW 3 32 32 VTop 2
SYMATTR InstName C1
SYMATTR Value 22n
SYMBOL cap 176 240 R180
WINDOW 0 24 56 Left 2
WINDOW 3 24 8 Left 2
SYMATTR InstName C6
SYMATTR Value 1n
SYMBOL cap 304 272 R270
WINDOW 0 32 32 VTop 2
WINDOW 3 0 32 VBottom 2
SYMATTR InstName C7
SYMATTR Value 30p
SYMBOL cap 240 352 R270
WINDOW 0 32 32 VTop 2
WINDOW 3 0 32 VBottom 2
SYMATTR InstName C8
SYMATTR Value 100p
SYMBOL res 624 144 R90
WINDOW 0 0 56 VBottom 2
WINDOW 3 32 56 VTop 2
SYMATTR InstName R9
SYMATTR Value 1k
SYMBOL cap 496 144 R90
WINDOW 0 0 32 VBottom 2
WINDOW 3 32 32 VTop 2
SYMATTR InstName C11
SYMATTR Value 4.7µ
SYMBOL diode 688 192 R0
SYMATTR InstName D2
SYMATTR Value 1N4148
SYMBOL diode 800 256 R180
WINDOW 0 24 64 Left 2
WINDOW 3 24 0 Left 2
SYMATTR InstName D3
SYMATTR Value 1N4148
SYMBOL potentiometer_standard 896 176 M270
SYMATTR InstName U3
SYMATTR Value Rtot=100K wiper={tone}
SYMATTR SpiceLine ""
SYMBOL res 1008 144 R90
WINDOW 0 0 56 VBottom 2
WINDOW 3 32 56 VTop 2
SYMATTR InstName R10
SYMATTR Value 1.5k
SYMBOL cap 1008 176 R0
SYMATTR InstName C13
SYMATTR Value 3.3n
SYMBOL cap 1152 144 R90
WINDOW 0 0 32 VBottom 2
WINDOW 3 32 32 VTop 2
SYMATTR InstName C14
SYMATTR Value 22n
SYMBOL res 1168 176 R0
SYMATTR InstName R11
SYMATTR Value 1Meg
SYMBOL njf 1216 96 R0
SYMATTR InstName J1
SYMATTR Value J2N5457
SYMBOL res 1248 208 R0
SYMATTR InstName R12
SYMATTR Value 10k
SYMBOL cap 1440 192 R90
WINDOW 0 0 32 VBottom 2
WINDOW 3 32 32 VTop 2
SYMATTR InstName C15
SYMATTR Value 1µ
SYMBOL potentiometer_standard 1456 224 R0
SYMATTR InstName U5
SYMATTR Value Rtot=100K wiper={volume}
SYMATTR SpiceLine Rtap=100 tap=0.001
SYMATTR SpiceModel pot_plog
SYMBOL cap 624 192 R0
SYMATTR InstName C12
SYMATTR Value 10n
TEXT -256 600 Left 2 ;.tran 0 25ms 20ms
TEXT -256 728 Left 2 !.include eguitar.lib
TEXT -256 752 Left 2 !.include LM308.lib
TEXT -256 776 Left 2 !.include potentiometer_standard.lib
TEXT -256 632 Left 2 !.step param gain 0.1 1 0.1
TEXT -256 656 Left 2 !.param tone 0.5
TEXT -256 680 Left 2 !.param volume 0.5
TEXT -256 576 Left 2 !.ac oct 40 20 20K
