Version 4
SHEET 1 1336 792
WIRE -560 -304 -720 -304
WIRE -496 -304 -560 -304
WIRE -464 -304 -496 -304
WIRE -352 -304 -352 -336
WIRE -352 -304 -384 -304
WIRE -288 -304 -352 -304
WIRE -256 -304 -288 -304
WIRE -144 -304 -176 -304
WIRE -64 -304 -64 -336
WIRE -64 -304 -144 -304
WIRE -720 -288 -720 -304
WIRE -560 -272 -560 -304
WIRE -496 -272 -496 -304
WIRE -352 -272 -352 -304
WIRE -288 -272 -288 -304
WIRE -144 -272 -144 -304
WIRE -64 -272 -64 -304
WIRE -720 -176 -720 -208
WIRE -560 -176 -560 -208
WIRE -496 -176 -496 -208
WIRE -352 -176 -352 -208
WIRE -288 -176 -288 -208
WIRE -144 -176 -144 -192
WIRE -64 -176 -64 -208
WIRE 16 32 16 0
WIRE 256 128 256 96
WIRE -304 144 -336 144
WIRE -112 144 -176 144
WIRE -80 144 -112 144
WIRE 16 144 16 112
WIRE 16 144 -16 144
WIRE 48 144 16 144
WIRE 160 144 128 144
WIRE 240 144 160 144
WIRE 400 160 304 160
WIRE -336 176 -336 144
WIRE -112 176 -112 144
WIRE 160 176 160 144
WIRE 240 176 224 176
WIRE 288 208 288 192
WIRE 384 208 288 208
WIRE 256 224 256 192
WIRE 272 256 272 192
WIRE 304 256 272 256
WIRE 384 256 384 208
WIRE 384 256 368 256
WIRE -112 288 -112 256
WIRE 160 288 160 240
WIRE 224 336 224 176
WIRE 240 336 224 336
WIRE 400 336 400 160
WIRE 400 336 304 336
WIRE 224 432 224 336
WIRE 240 432 224 432
WIRE 352 432 320 432
WIRE 400 432 400 336
WIRE 400 432 352 432
WIRE 272 512 272 480
WIRE 352 512 352 432
WIRE 352 512 272 512
FLAG -336 176 0
FLAG -112 288 0
FLAG -560 -176 0
FLAG -496 -176 0
FLAG -352 -176 0
FLAG -288 -176 0
FLAG -144 -176 0
FLAG -64 -176 0
FLAG -352 -336 Vr
FLAG -64 -336 Vb
FLAG -720 -176 0
FLAG 160 288 0
FLAG 256 96 Vr
FLAG 256 224 0
FLAG 16 0 Vb
SYMBOL eguitar -208 160 R0
SYMATTR InstName U4
SYMBOL res -96 272 R180
WINDOW 0 36 76 Left 2
WINDOW 3 36 40 Left 2
SYMATTR InstName R1
SYMATTR Value 1Meg
SYMATTR SpiceLine tol=1% pwr=0.25
SYMBOL res -368 -320 R90
WINDOW 0 0 56 VBottom 2
WINDOW 3 32 56 VTop 2
SYMATTR InstName R2
SYMATTR Value 47R
SYMATTR SpiceLine tol=1% pwr=0.25
SYMBOL polcap -480 -272 M0
SYMATTR InstName C2
SYMATTR Value 100µ
SYMATTR Description Capacitor
SYMATTR Type cap
SYMATTR SpiceLine V=16 Irms=170m Rser=1 Lser=0 mfg="Nichicon" pn="UPG1C101MPH" type="Al electrolytic"
SYMBOL diode -544 -208 R180
WINDOW 0 24 64 Left 2
WINDOW 3 24 0 Left 2
SYMATTR InstName D1
SYMATTR Value 1N4002
SYMBOL cap -272 -208 R180
WINDOW 0 24 56 Left 2
WINDOW 3 24 8 Left 2
SYMATTR InstName C4
SYMATTR Value 100n
SYMATTR SpiceLine V=50 Irms=728m Rser=0.14361 Lser=0 mfg="KEMET" pn="C0603C104K5RAC" type="X7R"
SYMBOL res -160 -320 R90
WINDOW 0 0 56 VBottom 2
WINDOW 3 32 56 VTop 2
SYMATTR InstName R3
SYMATTR Value 100k
SYMATTR SpiceLine tol=1% pwr=0.25
SYMBOL res -128 -176 R180
WINDOW 0 36 76 Left 2
WINDOW 3 36 40 Left 2
SYMATTR InstName R4
SYMATTR Value 100k
SYMATTR SpiceLine tol=1% pwr=0.25
SYMBOL polcap -48 -272 M0
WINDOW 3 24 56 Left 2
SYMATTR InstName C5
SYMATTR Value 47µ
SYMATTR Description Capacitor
SYMATTR Type cap
SYMATTR SpiceLine V=25 Irms=170m Rser=1 Lser=0 mfg="Nichicon" pn="UPG1E470MPH" type="Al electrolytic"
SYMBOL polcap -336 -272 M0
SYMATTR InstName C3
SYMATTR Value 100µ
SYMATTR Description Capacitor
SYMATTR Type cap
SYMATTR SpiceLine V=16 Irms=170m Rser=1 Lser=0 mfg="Nichicon" pn="UPG1C101MPH" type="Al electrolytic"
SYMBOL res 32 16 M0
SYMATTR InstName R5
SYMATTR Value 1Meg
SYMATTR SpiceLine tol=1% pwr=0.25
SYMBOL res 144 160 M270
WINDOW 0 32 56 VTop 2
WINDOW 3 0 56 VBottom 2
SYMATTR InstName R6
SYMATTR Value 1k
SYMBOL LM308 272 96 R0
SYMATTR InstName U1
SYMBOL cap 304 320 R90
WINDOW 0 0 32 VBottom 2
WINDOW 3 32 32 VTop 2
SYMATTR InstName C7
SYMATTR Value 100p
SYMATTR SpiceLine V=50 Irms=20.8m Rser=5.448 Lser=0 mfg="KEMET" pn="C0603C101K5RAC" type="X7R"
SYMBOL cap -16 128 R90
WINDOW 0 0 32 VBottom 2
WINDOW 3 32 32 VTop 2
SYMATTR InstName C1
SYMATTR Value 22n
SYMBOL cap 176 240 R180
WINDOW 0 24 56 Left 2
WINDOW 3 24 8 Left 2
SYMATTR InstName C6
SYMATTR Value 1n
SYMBOL potentiometer_standard 336 416 R90
SYMATTR InstName U2
SYMATTR Value Rtot=1Meg wiper={gain}
SYMATTR SpiceLine ""
SYMBOL cap 368 240 R90
WINDOW 0 0 32 VBottom 2
WINDOW 3 32 32 VTop 2
SYMATTR InstName C8
SYMATTR Value 30p
SYMATTR SpiceLine V=50 Irms=0 Rser=0 Lser=0 mfg="Murata" pn="GCM0335C1H300JA16" type="C0G"
SYMBOL voltage -720 -304 R0
WINDOW 123 0 0 Left 0
WINDOW 39 0 0 Left 0
SYMATTR InstName V1
SYMATTR Value 9V
TEXT -256 656 Left 2 !.tran 0 25ms 20ms
TEXT -256 728 Left 2 !.include eguitar.lib
TEXT -256 752 Left 2 !.include LM308.lib
TEXT -256 776 Left 2 !.include potentiometer_standard.lib
TEXT -256 688 Left 2 !.step param gain 0.1 1 0.1
